800 290 3.60307
0.0 290.00 3.60307 0.0 0.0
10.0 290.07 3.59863 3.6 0.0
21.0 290.14 3.59374 5.8 0.0
33.1 290.22 3.58838 6.6 0.0
46.4 290.31 3.58249 7.0 0.0
61.0 290.41 3.57604 7.2 0.0
77.2 290.51 3.56895 7.3 0.0
94.9 290.63 3.56118 7.4 0.0
114.4 290.76 3.55266 7.5 0.0
135.8 290.90 3.54332 7.5 0.0
159.4 291.06 3.53309 7.5 0.0
185.3 291.24 3.52188 7.5 0.0
213.8 291.43 3.50961 7.5 0.0
245.2 291.64 3.49618 7.5 0.0
279.8 291.87 3.48150 7.5 0.0
317.7 292.12 3.46545 7.5 0.0
359.5 292.40 3.44791 7.5 0.0
405.4 292.71 3.42877 7.5 0.0
456.0 293.05 3.40789 7.5 0.0
511.6 293.42 3.38513 7.5 0.0
572.8 293.83 3.36036 7.5 0.0
640.0 294.29 3.33341 7.5 0.0
714.0 294.79 3.30412 7.5 0.0
795.4 295.34 3.27235 7.5 0.0
885.0 295.95 3.23793 7.5 0.0
983.5 296.62 3.20068 7.5 0.0
1091.8 297.35 3.16046 7.5 0.0
1211.0 298.17 3.11708 7.5 0.0
1342.1 299.07 3.07043 7.5 0.0
1486.3 300.06 3.02035 7.5 0.0
1644.9 301.15 2.96675 7.5 0.0
1819.4 302.36 2.90952 7.5 0.0
2011.4 303.69 2.84861 7.5 0.0
2211.4 305.09 2.78738 7.5 0.0
2411.4 306.49 2.72836 7.5 0.0
2611.4 307.90 2.67148 7.5 0.0
2811.4 309.32 2.61668 7.5 0.0
3011.4 310.74 2.56390 7.5 0.0
3211.4 312.17 2.51309 7.5 0.0
3411.4 313.60 2.46418 7.5 0.0
3611.4 315.04 2.41713 7.5 0.0
3811.4 316.49 2.30167 7.5 0.0
4011.4 317.95 2.19053 7.5 0.0
4211.4 319.41 2.08353 7.5 0.0
4411.4 320.88 1.98047 7.5 0.0
4611.4 322.35 1.88117 7.5 0.0
4811.4 323.84 1.78545 7.5 0.0
5011.4 325.32 1.69313 7.5 0.0
5211.4 326.82 1.60406 7.5 0.0
5411.4 328.32 1.51806 7.5 0.0
5611.4 329.83 1.43500 7.5 0.0
5811.4 331.35 1.35471 7.5 0.0
6011.4 332.87 1.27706 7.5 0.0
6211.4 334.40 1.20191 7.5 0.0
6411.4 335.94 1.12911 7.5 0.0
6611.4 337.48 1.05855 7.5 0.0
6811.4 339.04 0.99008 7.5 0.0
7011.4 340.59 0.92360 7.5 0.0
7211.4 342.16 0.85897 7.5 0.0
7411.4 343.73 0.79608 7.5 0.0
7611.4 345.31 0.73482 7.5 0.0
7811.2 346.90 0.67509 7.5 0.0
8010.9 348.49 0.61676 7.5 0.0
8210.5 350.09 0.55973 7.5 0.0
8409.9 351.70 0.50389 7.5 0.0
8609.2 353.31 0.44915 7.5 0.0
8808.3 354.92 0.39540 7.5 0.0
9007.3 356.55 0.34253 7.5 0.0
9206.1 358.18 0.29045 7.5 0.0
9404.8 359.81 0.23906 7.5 0.0
9603.4 361.46 0.18826 7.5 0.0
9801.8 363.11 0.13796 7.5 0.0
10000.0 364.76 0.08805 7.5 0.0
